Version 4
SHEET 1 908 680
WIRE 336 48 -16 48
WIRE 432 48 336 48
WIRE -16 80 -16 48
WIRE 336 80 336 48
WIRE 432 80 432 48
WIRE 432 176 432 160
WIRE -16 208 -16 160
WIRE -16 208 -64 208
WIRE 32 208 -16 208
WIRE 128 208 96 208
WIRE 192 208 128 208
WIRE 304 208 272 208
WIRE 336 208 336 160
WIRE 336 208 304 208
WIRE 128 224 128 208
WIRE 336 224 336 208
WIRE 496 272 416 272
WIRE 496 288 496 272
WIRE 416 304 416 272
WIRE 416 304 384 304
WIRE 128 320 128 304
WIRE 336 336 336 320
WIRE 496 384 496 368
FLAG 336 336 0
FLAG 432 176 0
FLAG 304 208 cs
FLAG 128 320 0
FLAG -64 208 brksw
FLAG 496 384 0
SYMBOL res 288 192 R90
WINDOW 0 0 56 VBottom 2
WINDOW 3 32 56 VTop 2
SYMATTR InstName R2
SYMATTR Value 2.2k
SYMBOL res 352 176 R180
WINDOW 0 36 76 Left 2
WINDOW 3 36 40 Left 2
SYMATTR InstName R3
SYMATTR Value 22k
SYMBOL voltage 496 272 R0
WINDOW 123 0 0 Left 0
WINDOW 39 0 0 Left 0
SYMATTR InstName V1
SYMATTR Value PULSE(0 3.3 1m 10n 10n 1m 2m)
SYMBOL voltage 432 64 R0
WINDOW 123 0 0 Left 0
WINDOW 39 0 0 Left 0
SYMATTR InstName V2
SYMATTR Value 3.3
SYMBOL res 112 208 R0
SYMATTR InstName R4
SYMATTR Value {X}
SYMBOL nmos 384 224 M0
SYMATTR InstName M1
SYMATTR Value BSP89
SYMBOL schottky 32 224 R270
WINDOW 0 32 32 VTop 2
WINDOW 3 0 32 VBottom 2
SYMATTR InstName D1
SYMATTR Value 1N5818
SYMATTR Description Diode
SYMATTR Type diode
SYMBOL res -32 64 R0
SYMATTR InstName R1
SYMATTR Value 330
TEXT -192 272 Left 2 !.step param X list 1G 1
TEXT -194 440 Left 2 !.tran 2m
