Version 4
SHEET 1 1352 680
WIRE 16 112 -16 112
WIRE 144 112 96 112
WIRE 240 112 224 112
WIRE 336 112 240 112
WIRE 416 112 336 112
WIRE 512 112 416 112
WIRE 624 112 592 112
WIRE 720 112 688 112
WIRE 768 112 720 112
WIRE 240 128 240 112
WIRE 336 128 336 112
WIRE 720 144 720 112
WIRE -16 160 -16 112
WIRE 416 176 416 112
WIRE 768 192 768 112
WIRE 800 192 768 192
WIRE 816 192 800 192
WIRE 1088 192 1072 192
WIRE 1136 192 1088 192
WIRE 1200 192 1136 192
WIRE 1136 208 1136 192
WIRE 720 224 720 208
WIRE 1200 224 1200 192
WIRE -16 256 -16 240
WIRE 416 272 416 256
WIRE 800 288 800 192
WIRE 816 288 800 288
WIRE -16 352 -16 336
WIRE 368 352 336 352
WIRE 336 368 336 352
WIRE 416 384 416 368
WIRE 1072 384 1056 384
WIRE 1088 384 1088 192
WIRE 1088 384 1072 384
WIRE 944 464 944 448
FLAG -16 352 0
FLAG 416 384 0
FLAG 336 448 0
FLAG 240 192 0
FLAG 720 224 0
FLAG 1200 304 0
FLAG 1136 272 0
FLAG 336 192 0
FLAG 944 464 0
SYMBOL ind 128 128 R270
WINDOW 0 32 56 VTop 2
WINDOW 3 5 56 VBottom 2
SYMATTR InstName L1
SYMATTR Value 3µ
SYMBOL voltage -16 144 R0
WINDOW 123 0 0 Left 0
WINDOW 39 0 0 Left 0
SYMATTR InstName V1
SYMATTR Value 12
SYMBOL res 112 96 R90
WINDOW 0 0 56 VBottom 2
WINDOW 3 32 56 VTop 2
SYMATTR InstName R1
SYMATTR Value 40m
SYMBOL res 400 160 R0
SYMATTR InstName R2
SYMATTR Value 0.05
SYMBOL nmos 368 272 R0
SYMATTR InstName M1
SYMATTR Value Si7336ADP
SYMBOL voltage 336 352 R0
WINDOW 123 0 0 Left 0
WINDOW 39 0 0 Left 0
SYMATTR InstName V2
SYMATTR Value PULSE(0 12 0 10n 10n 25u 50u)
SYMBOL cap 224 128 R0
SYMATTR InstName C1
SYMATTR Value 1360µ
SYMATTR SpiceLine V=25 Irms=4 Rser=20m
SYMBOL res 608 96 R90
WINDOW 0 0 56 VBottom 2
WINDOW 3 32 56 VTop 2
SYMATTR InstName R3
SYMATTR Value 10
SYMBOL cap 704 144 R0
WINDOW 123 24 84 Left 2
SYMATTR InstName C2
SYMATTR Value 12µ
SYMATTR Value2 x2
SYMBOL res 1184 208 R0
SYMATTR InstName R4
SYMATTR Value 80
SYMBOL cap 1120 208 R0
SYMATTR InstName C3
SYMATTR Value 10µ
SYMATTR SpiceLine Rser=1
SYMBOL cap 320 128 R0
SYMATTR InstName C4
SYMATTR Value 15µ
SYMATTR SpiceLine Rser=3m
SYMBOL ind 0 352 R180
WINDOW 0 36 80 Left 2
WINDOW 3 36 40 Left 2
SYMATTR InstName L2
SYMATTR Value 3µ
SYMBOL schottky 624 128 R270
WINDOW 0 32 32 VTop 2
WINDOW 3 0 32 VBottom 2
SYMATTR InstName D1
SYMATTR Value 1N5817
SYMATTR Description Diode
SYMATTR Type diode
SYMBOL PowerProducts\\ADP7118-3.3 944 288 R0
SYMATTR InstName U1
TEXT -48 472 Left 2 !.tran 5m
